tests/data/BR-ACEquiv-sys/LENA_CASO_FINAL_EQV2020_AC_Full.pwf
(ARQUIVO GRAVADO A PARTIR DO PROGRAMA ORGANON)
TITU
Equivalente - Caso 4 com corre��o nas LTs do PRSIM + ALT SSE 4
DOPC
(Op) E (Op) E (Op) E (Op) E (Op) E (Op) E (Op) E (Op) E (Op) E (Op) E
QLIM L CREM L STEP L NEWT L MOST L MOSG L MOSF L RCVG L RMON L FILE L
CONT L CELO L MFCT L
99999
DCTE
(Mn) ( Val) (Mn) ( Val) (Mn) ( Val) (Mn) ( Val) (Mn) ( Val) (Mn) ( Val)
BASE   100. DASE   100. TEPA     .1 EXST     .4 TETP     5. TBPA     5.
TLPP     1. TEPR     .1 QLST     .4 TLPR     .1 TLPQ     2. TSBZ    .01
TSBA     5. ASTP    .05 VSTP     5. TLVC     .5 TLTC    .01 TSFR  .1E-7
ZMAX   500. TLPV     .5 VDVM   200. VDVN    40. TUDC   .001 TADC    .01
PGER    30. TPST     .2 VFLD    80. ZMIN   .001 HIST    470 LFIT     10
ACIT     35 LFCV      1 DCIT     10 VSIT     10 LPIT     50 LFLP     10
PDIT     10 LCRT    200 LPRT     60 CSTP     5. ASDC     1.
ICIT   9999 DMAX      5 FDIV     2. ICMN    .05 VART     5. TSTP     33
ICMV     .5 APAS    90. CPAR    70. VAVT     2. VAVF     5. VMVF    15.
VPVT     2. VPVF     5. VPMF    10. VSVF    20. VINF     1. VSUP     1.
TLSI     0. NDIR    20. STTR     5. TRPT   100. STIR     1. BFPO     1.
LFPO     .1 TLMT     0. TLMF     0. TLMG     0.
99999
DBAR
(Num)OETGb(   nome   )Gl( V)( A)( Pg)( Qg)( Qn)( Qm)(Bc  )( Pl)( Ql)( Sh)Are(Vf)M(1)(2)(3)(4)(5)(6)(7)(8)(9)(10
   10 L1 VANGRA1UNE001 8 963-21.649.9 20.2-211. 414.        32.15.49      441000
   11 L1 VANGRA2UNE001 8 961-21.1350.246.9-600. 600.        65. 31.5      441000
   16 L2 VFURNASUHE006 81050-21.328.175.89-150. 150.                       11000
   22 L1 VM.MORAUHE005 8 993-10. 234. -53.-100. 105.        1.8   0.       11000
   24 L1 VM.MORBUHE003 8 958-10. 135.10.62 -18. 46.5        1.2   0.       11000
   36 L1 VS.MESAUHE003 8 9896.591099.-124.-480. 480.                       11000
   38 L1 TGRAJA2SIN001 81009-42.   0.56.12-120. 200.   178  1.3   0.       11000
   44 L1 TGRAJA1SIN001 81009-42.   0.56.12-120. 200.   178  1.3   0.       11000
   48 L1 TIBIUNASIN004 81022-28.   0.-154.-10801200.    86                 11000
   50 L1 TTPRETOSIN001 8 991-33.   0.-30.9-180. 300.        .55   0.       11000
   56 L  IIVAIP3-PR069 8 980-15.                                           11000
   57 L  IIVAIP2-PR069 8 924-15.                                           11000
   58 L  UIVAIP2-PR000 81044-15.                                           11000
   59 L  UIVAIP3-PR000 81040-15.                                           11000
   60 L  AF.IGUA-PR765 81007-3.2                          21.54-131.       11000
   61 L  CFZ-500-PR500 81053.373                                           11000
   65 L  AIVAIPO-PR765 81040-14.                          42.91-1958       11000
   66 L  BIVAIPO-PR525 81025-14.                                           11000
   67 L  IIVAIP1-PR069 8 976-14.                                           11000
   68 L  UIVAIP1-PR000 81038-14.                                           11000
   72 L  AITABER-SP765 81037-20.                          64.33-2696       11000
   76 L  ATPRETO-SP765 8 990-27.                          1.0381260.       11000
   77 L  CTPRETO-SP500 81065-27.                          35.32-171.       11000
   78 L  ETPRETO-SP345 81035-32.                          2263.103.8       11000
   79 L  ITPRETO-SP069 8 877-28.                                           11000
   80 L  UTPRET3-SP000 8 989-28.                                           11000
   81 L  UTPRET4-SP000 8 999-33.                                           11000
   82 L  ETPRET2-SP345 81033-32.                          2141.242.9       11000
   85 L  CFOZ500-PR500 81029-9.1                            60.   0.       11000
   86 L  EIBIUNA-SP345 81046-28.                            66.   0.       11000
   87 L  CRESEND-RJ500 81056-31.                                          411015
   97 L  EGUARU2-SP345 81034-35.                          2195.-12.1       11000
  100 L  CMARIMB-MG500 81085 -2.                                           11000
  101 L  CARARAQ-SP500 81048-11.                               -282.       11000
  102 L  CP.CALD-MG500 81070-20.                          187.4-200.       11000
  103 L  CCAMPIN-SP500 81044-24.                                           11000
  104 L  CC.PAUL-SP500 81060-29.                          351.7-181.       11000
  105 L  CANGRA--RJ500 81043-28.                          207.622.29       11000
  106 L  CADRIAN-RJ500 81049-34.                             8.-58.6       11000
  107 L  CGRAJAU-RJ500 81043-37.                               -4.98       11000
  108 L  CS.JOSE-RJ500 81042-36.                          1154.77.25       11000
  110 L  UGR1T52-RJ000 8 992-42.                                           11000
  114 L  CBA-IT1-PR500 81072-32.                                          431000
  115 L  CBA-IT1CAP500 81004-40.                                          431000
  122 L  CIBIUNA-SP500 81084-29.                               -1304       11000
  123 L  ECAMPIN-SP345 8 981-29.                           577.412.1       11000
  124 L  UCAMPI1-SP000 8 994-30.                                           11000
  126 L  EGUARUL-SP345 81034-35.                          434.1-85.9       11000
  131 L  EM.MORA-MG345 81022-16.                                           11000
  136 L  EFURNAS-MG345 81035-25.                          1358.-262.       11000
  139 L  UADRT51-RJ000 81032-41.                                           11060
  140 L  EADRIAN-RJ345 81024-40.                          1031.-210.       11000
  141 L  UADRT53-RJ000 81039-43.                                           11000
  142 L  UADRT55-RJ000 81043-43.                                           11060
  144 L  EJACARE-RJ345 81023-41.                          787.6-159.       11000
  176 L  UCAMPI2-SP000 8 991-30.                                           11000
  178 L  GGRAJAU-RJ138 8 993-42.                          1757.156.2       11000
  179 L  UGR2T54-RJ000 8 992-42.                                           11000
  186 L  NCAMPI2-SP013 8 991-30.                                           11000
  187 L  GM.MORA-MG138 81028-17.                          464.980.94       11000
  194 L  NADRT55-RJ013 81043-43.                                           11080
  195 L  NADRT53-RJ013 81039-43.                                           11000
  196 L  NCAMPI1-SP013 8 911-30.                                           11000
  197 L  NADRT51-RJ013 81032-41.                                           11080
  210 L  CITUMBI-MG500 81097-.43                                           11000
  233 L  CSAMAMB-DF500 81067-3.1                          1332.-187.       11000
  235 L  CS.MESA-GO500 810541.28                          328.1-192.       11000
  299 L  CSMESA2-GO500 81049 .07                          12.71271.4      631000
  320 L  CEMBORC-MG500 81092-6.5                                           21000
  325 L  CJAGUAR-MG500 81082-13.                          789.6-834.       21000
  360 L  CNPONTE-MG500 81086-8.8                                           21000
  370 L  CSSIMAO-MG500 810792.56                                           21000
  390 L  CSGOTAR-MG500 81087-23.                          125.8-218.       21000
  402 L1 CARARQ2SIN003 81083-11.   0. 296.-300. 600.  7057                711000
  488 L  EINTERL-SP345 81034-36.                          4023.-135.       41000
  514 L1 VCHAVANUHE004 8 963-19.310.961.91-200. 200.                      151000
  535 L  CAVERME-SP500 810791.39                          357.9-578.       51000
  556 L  BASSIS--SP525 81032-13.                          649.2-168.       51018
  580 L  CASSIS--SP500 81083-13.                                          431000
  598 L  CTAUBAT-SP500 81051-28.                          471.5233.1       51000
  609 L  CF.DIAS-SP500 81031-23.                          1202. 630.      431000
  615 L  FCHAVAN-SP230 8 997-24.                          637.5-7.37       51000
  627 L  FITARAR-SP230 81013-35.                          299.3-51.2       51000
  895 L  BBATEIA-PR525 81021-32.                          3783.486.1      21 973
  896 L  BCASCOE-PR525 81017-9.3                          1198.-98.2      211000
  999 L  BIVAIPE-PR525 81025-14.                          316.7-901.      201000
 1027 L  BLONDRI-PR525 81022-16.                          1299.390.5      201000
 1100 L2 VIPU-50UHE009 81042-.196578.2077.-38973897.        14.   0.      171000
 1101 L  CIPU-50-PR500 81031-8.3                                          171000
 1103 L  CMARGEM-PR500 81030-8.6                          2300. 760.      171000
 1106 L  CIPU-60-PR500 810531.23                                          171000
 1107 L1 VIPU-60UHE009 810318.916299. 529.-24122754.  1106   9.   0.      171000
 1503 L  CITAJU3-MG500 81064-27.                          207.9 64.8       21000
 3007 L  CLUZIAN-GO500 81061-5.6                          466.9-242.      731000
 3008 L  CPARAC4-MG500 81074-7.7                                          721000
 3010 L  CESTREI-MG500 81085-10.                                          721000
 3011 L  CR.PRET-SP500 81087-16.                          965.3-175.      711000
 3012 L  EESTREI-MG345 81035-14.                          1700.-159.      721000
 3110 L  CM.AGUD-SP500 81094-13.                          392.1-177.      711000
 3962 L1 VNFLU-GUTE002 8 994-47.264.9-60.6-140. 240.                      411000
 3963 L1 VNFLU-VUTE001 8 997-48. 135.-37.5-110. 180.                      411000
 3966 L  EMACAE--RJ345 81010-51.                          1060.-215.      411000
 4049 L  CPIRAP2-MG500 81056-14.                          577.3-59.1      721000
 4050 L  CBDESP3-MG500 81075-30.                          3155.-631.       21000
 4201 L  GGLB-1--RJ138 81017-40.                          453.462.94      411000
 4202 L  GGLB-2--RJ138 81044-43.                          470.4-53.4      411000
 4203 L1 VTRG111UTE001 81003-36.99.98-14.1 -61. 76.8                      411000
 4204 L1 VTRV18-UTE000 81017-40.   0.   0.   0.   0.                      411000
 4205 L1 VTRV28-UTE000 81017-40.   0.   0.   0.   0.                      411000
 4206 L1 VTRG212UTE000 81044-43.   0.   0.   0.   0.                      411000
 4207 L1 VTRG313UTE000 81044-43.   0.   0.   0.   0.                      411000
 4208 L1 VTRV38-UTE000 81044-43.   0.   0.   0.   0.                      411000
 4531 L  CRVNORT-GO500 810695.43                          980.7-1020      491000
 4598 L  CMARIM2-SP500 81086-2.1                                           11000
 5436 L  CRGONCA-PI500 81065 -3.                          56.19-812.      571000
 5480 L  CSOBRA3-CE500 81064-17.                          800.1-213.      561070
 5500 L  CTERES2-PI500 81047-7.6                          873.452.24      571060
 5510 L  CB.ESPE-PI500 81046 -9.                          61.6872.74      571047
 5540 L  CMIRAND-MA500 81090-.95                          162.1-226.      581000
 5550 L  CSLUIS2-MA500 81088-3.9                          554.1-92.9      581037
 5570 L  CS.J.PI-PI500 81062-13.                          556.9-1088      571074
 5580 L  CP.DUTR-MA500 810621.91                          42.65-124.      581076
 5590 L  CIMPERA-MA500 8108211.7                          574.5-1948      581099
 5594 L  CESTREI-MA500 8105220.8                                          581000
 5595 L1 VESTREIUHE008 8103427.81031.-78.9-541. 541.                      581000
 5679 L  CPNBIII-PI500 81039-8.3                          208.3-136.      571000
 5684 L  CBACAB--MA500 81089-3.3                                          581000
 5860 L  CPOCIII-BA500 81070-40.                          327.9-85.4      541000
 6220 L  CIGAPOR-BA500 81052-29.                               -48.7      531000
 6349 L  CBJLAP2-BA500 81069-23.                               -361.      531027
 6359 L  CIBICOA-BA500 81056-37.                          113.2-15.2      541021
 6360 L  CBARREI-BA500 81040-8.3                          117.4-28.1      531000
 6369 L  CSAPEAC-BA500 81046-43.                          2318.-330.      541000
 6400 L  CMARABA-PA500 8105723.6                          9.539-555.      591096
 6401 L  FMARABA-PA230 8 99521.2                                          591016
 6405 L1 TMARABASIN001 8100621.2   0.94.37 -90. 150.                      59 990
 6406 L  NMARAB1-PA013 8105720.6                                          591080
 6408 L  UMAATR1-PA000 8 98520.6                                          591006
 6410 L  CTUCURU-PA500 8107439.4                          138.3-95.9      591100
 6419 L1 VTUCUR1UHE005 8102645.81676.133.3-525. 525.  6410                591026
 6420 L1 VTUCUR2UHE003 8103245.71006.133.3-315. 315.  6410                591026
 6421 L1 TTUCUR2SIN000 8102339.4   0.   0.   0.   0.  6410                591026
 6422 L1 VTUCUR3UHE004 8102845.71341.133.3-420. 420.  6410                591026
 6423 L1 VTUCUR3SIN000 8102339.4   0.   0.   0.   0.                      591026
 6424 L1 VTUCUR5UHE004 8101749.61417.126.3-472. 472.  6430                591026
 6425 L1 VTUCUR6UHE007 8101149.72480.126.3-826. 826.  6430                591026
 6430 L  CTUCUR2-PA500 8106740.3                                          591050
 6440 L  CITACAI-PA500 8105721.5                           550.-344.      591000
 6444 L  CR.EGUA-BA500 81050-7.6                          13.23-227.      531042
 6460 L  CV.COND-PA500 8106427.6                               -1381      591007
 6461 L  FV.COND-PA230 8101322.7                                          611033
 6465 L1 TVCONDESIN002 8102722.7   0.210.7-180. 300.                      591000
 6506 L  NMARAB2-PA013 81013 21.                                          591080
 6507 L  CMB-TC4CAP500 8108217.1                                          591000
 6508 L  UMAATR2-PA000 8 964 21.                                          591000
 6509 L  CMB-TC3CAP500 8108416.9                                          591078
 6510 L  CMB-TC1CAP500 81069 17.                                          591088
 6511 L  CMB-TC2CAP500 81067 17.                                          591088
 6521 L  FALTAMI-PA230 8100439.1                                          591070
 6609 L  CITATIB-SP500 81073-26.                          697.447.84       11000
 6700 L  CACAILA-MA500 8107712.7                          62.33-355.      581100
 6728 L1 TBMONTESIN000 81022 46.   0.   0.   0.   0.                      431000
 6729 L1 VBMONTEUHE018 8103155.9104481440.-50404950.                      431000
 6730 L  CBMONTE-PA500 81073 46.                                          431000
 6900 L  FP.VELH-RO230 8103144.9                           604.-123.      451000
 7050 L1 VSA-MD-UHE008 81007-7.3 516.106.2-287.287.2                      811000
 7051 L2 VJIR-MDUHE027 81027-.191976.261.8-991.990.9                      811000
 7053 L  CSA-MD--RO500 81039-14.                                          811000
 7054 L  FC.PVEL-RO230 8103246.3                                          811000
 7055 L  CC.PVEL-RO500 81037-15.                                          811000
 7056 L  CJIRAU--RO500 81044-7.9                                          811000
 7057 L  CARARQ2-SP500 81044-11.                                          811034
 7058 L  DARARQ2-SP440 81041-14.                          2490.-217.      811000
 7059 L  CCPVBTB-RO500 81038-15.                                          811000
 7060 L  CJIR-ME-RO500 81044-7.8                                          811000
 7061 L1 VJIR-MEUHE021 81023-.131531.157.9-771.770.7                      811100
 7062 L1 VSA-LR-UHE012 81012 -7. 802.195.7-431.430.8                      811000
 7063 L  CSA-LR--RO500 81040-14.                                          811000
 7064 L1 VSA-ME-UHE023 81022-6.91603.504.7-862.861.6                      811000
 7065 L  CSA-ME--RO500 81041-14.                                          811000
 7100 L  CGURUPI-TO500 810674.24                          29.22-541.      631080
 7110 L1 VPEIXEAUHE003 8 99315.1471.9-65.5-300. 165.                      631000
 7111 L  GPEIXEA-TO138 810148.91                                          631000
 7113 L  CPEIXE2-TO500 810683.55                           46.5-617.      631000
 7190 L  CGILBU2-PI500 81057-17.                               -253.      571000
 7200 L  CMIRACE-TO500 810636.47                          106.1-672.      631069
 7206 L1 VLAJEADUHE005 8101515.9852.990.19-285. 285.                      631000
 7207 L  FLAJEAD-TO230 810099.89                          112.6604.3      631000
 7300 L  CCOLINA-TO500 81065  8.                          78.42-382.      631079
 8099 L  CXINGU--PA501 8107344.1                                          801050
 8100 L  CXINGU--PA500 8107344.3                                          801050
 8101 L  CXI-TC1CAP500 8102052.9                                          801078
 8102 L  CXI-TC2CAP500 8102052.9                                          801078
 8103 L  CXI-JR1CAP500 8106845.7                                          801103
 8104 L  CXI-JR2CAP500 8106845.7                                          801103
 8106 L  FXINGU--PA230 8100241.6                                          591000
 8200 L  CJURUPA-PA500 81067 43.                          119.4-416.      801050
 8201 L  CJR-XI1CAP500 8106241.6                                          801085
 8202 L  CJR-XI2CAP500 8106241.6                                          801085
 8265 L  CJURUPACER500 81050 43.                                          801000
...
99999
DLIN
(De )d O d(Pa )NcEP ( R% )( X% )(Mvar)(Tap)(Tmn)(Tmx)(Phs)(Bc  )(Cn)(Ce)Ns(Cq)(1)(2)(3)(4)(5)(6)(7)(8)(9)(10
   38       17954         3.0195         1.                     200.200.   75.
   44       11052             3.         1.                     200.200.  100.
   50        81 4          2.498         1.                     500.500.  225.
   56        59 1         3.3852         1.                     550.550.  251.
   57        58 1         3.6218         1.                     550.550.   73.
   60        6599 T       .38679                                99999999  9999
   61        60 1 T         .622       1.05                     16501815  1650
   61        60 2 T        .6424       1.05                     16501815  1650
   61        60 3 T         .623       1.05                     16501815  1650
   61        60 4 T        .6226       1.05                     16501815  1650
   61        60 5           .623       1.05                     16501980  1650
   65        58 1          .8224         1.                     16501650  115.
   65        59 1          .7734         1.                     16501833  2598
   65        68 1           .697         1.                     16501815  1650
   65        7299 T       .25541                                99999999  9999
   66        58 1         -.1703      .9876 .8381.053         661650165032 92.
   66        59 1         -.1183      .9876 .8381.053         661650183332251.
   66        68 1         -.0303      .9875 .8381.053         6616501815321650
   67        68 1         3.5455         1.                     550.550.  1650
   72        7699 T        .3094                                99999999  9999
   76        80 3           .697         1.                     16501815   60.
   76        81 4         1.0276         1.                     15001650  118.
   77        76 1          .6739      1.078                     16501650  1650
   77        76 2          .6552      1.078                     16501815  300.
   77        80 3         -.0303      1.078                     16501815  150.
   77       104 1 T   .162   2.5 216.6                          18552337  1855
   77       10499 T        2.011                                99999999  9999
   77       598 1 T   .107  1.44 133.4                          18552252  1855
   77       59899 T       102.78                                99999999  9999
   78        76 5          .9007      1.038                     15001650  147.
   78        81 4         -.1069      1.038                     15001650  103.
   78        82 1           1.26                                450.450.  1992
   78        8299 T       .41218                                99999999  9999
   78       12699 T       3.9862                                99999999  9999
   78       13699 T       118.25                                99999999  9999
   78     1001399 T       39.679         1.                     99999999  9999
   78     1002299 T       7.6405         1.                     99999999  9999
   78     1003199 T       9.3065         1.                     99999999  9999
   79        80 3         3.5455         1.                     550.550.  150.
   82        76 6          .8916      1.038                     15001650  1660
   82        76 7          .8714      1.038                     15001800  1660
   82       12699 T        4.007                                99999999  9999
   82       13699 T       118.25                                99999999  9999
   82     1001399 T       61.599         1.                     99999999  9999
   82     1002299 T       10.357         1.                     99999999  9999
   82     1003199 T       19.928         1.                     99999999  9999
   85      1103 3 T  .0056 .096910.041                          27283377  3377
   85      1103 4 T  .0054 .0936 9.691                          27283377  3377
   86        48 1         .71475      1.013                     10501050  1050
   86        78 2 T   .185   2.6  60.1                          12801613  1280
   86        82 1     .185   2.6  60.1                          12801613  300.
   86       122 1         1.7111       .971                     750.750.  206.
   86       122 2         1.7042       .971                     750.750.   33.
   86       122 3         1.6718       .971                     750.900.  103.
   86       488 1    .09481.4987 41.91                          20202390  2390
   86       488 2    .09481.4987 41.91                          20202390  2390
   87      9605 1 T   .096 1.443 123.7                          18552337  1855
   97        7899 T         175.                                99999999  9999
   97        86 1     .108  1.83  51.2                          17072150   25.
   97        86 2     .108  1.83  51.2                          17072150  136.
   97       48899 T       .60994                                99999999  9999
   97      705899 T       88.645         1.                     99999999  9999
   97     1001399 T       91.706         1.                     99999999  9999
  100       21099 T       73.655                                99999999  9999
  100       32599 T       78.141                                99999999  9999
  100       535 1 T   .153   2.4 203.8                          17321732  1732
  100      301299 T       57.047         1.                     99999999  9999
  100      3110 1     .123 2.587 123.7                          19922390  1992
  100      4598 1     .007  .098 8.387                          18552337  1855
  100      4598 2     .007  .098 8.387                          18552337  1855
  100      4598 3     .007  .098 8.387                          19922390  1992
  100     1001399 T       18.532         1.                     99999999  9999
  100     1001599 T        102.7         1.                     99999999  9999
  101       102 1     .156  2.46 208.5                          18552337  1855
  101       103 1     .152  2.39 202.6                          18552337  1855
  101       55699 T        2.973         1.                     99999999  9999
  101      4598 1 T  .1798 2.761236.42                          18552337  1855
  101      4598 2 T  .18012.7657236.83                          18552337  1855
  102        7899 T       138.99         1.                     99999999  9999
  102        8299 T       138.99         1.                     99999999  9999
  102       12399 T       20.138         1.                     99999999  9999
  102       12699 T       14.391         1.                     99999999  9999
  102       13699 T       10.974         1.                     99999999  9999
  102      1503 1     .126 1.908201.77                          18552337  1855
  102      705899 T       177.26         1.                     99999999  9999
  102     1001599 T       76.291         1.                     99999999  9999
  103       12451         2.9458       1.05                     560.717.  560.
  103       17654         2.9116       1.05                     560.728.  560.
  103       609 1     .057  .846 91.52                          18552337  1855
  103      6609 1     .024   .37  31.7                          18552337   61.
  104        7899 T       75.366         1.                     99999999  9999
  104        8299 T       75.366         1.                     99999999  9999
  104        87 2      .05   .78  66.5                          18552337   39.
  104       105 1 T   .092  1.48 119.6                          18552337  1855
  104       598 1     .075  1.15  98.9                          18552252  1855
  104       59899 T       12.189                                99999999  9999
  104       609 1     .147 2.175195.91                          18552337  1855
  104      1503 1     .052  .816 68.46                          18552337  1855
  104      9605 1 T   .138 2.204190.77                          18552337  1855
  104      960899 T       55.611                                99999999  9999
  104      9626 3    .10811.6851252.04                          24732598   72.
  104     1001799 T       20.926         1.                     99999999  9999
  104     1002299 T       194.83         1.                     99999999  9999
  105        10 1           1.97      1.075                     759.759.  759.
  105        11 1            .95        1.1                     14501450  1450
  105       14499 T       48.681         1.                     99999999  9999
  105       17899 T       114.27         1.                     99999999  9999
  105      9601 1     .092 1.363 115.3                          18552337  558.
  105      960199 T       39.642                                99999999  9999
  105      9608 1 T   .101 1.518 127.8                          18552337  1855
  106       108 1      .02   .4144.273                          25982598  2598
  106       139 1          3.103       1.05                     560.644.  2598
  106       141 1         3.8333       1.05                     560.717.  560.
  106       142 1         4.1368       1.05                     560.717.  560.
  107       10699           .686                                99999999  9999
  107       11052          2.141       1.05                     600.720.   75.
  107       17954         2.1497       1.05                     600.720.  150.
  108       14099 T       23.222         1.                     99999999  9999
  108      396699 T       117.15         1.                     99999999  9999
  108     1001799 T       30.398         1.                     99999999  9999
  114       895 1            .01       1.05                     26163715   88.
  115      6609 1     .255 4.167646.76                          26163715  2616
  122       89599 T       .98927         1.                     99999999  9999
  122      6609 1     .078   1.2 103.2                          18552337  1855
  123       12451          -.528        .99                     560.717.  560.
  123       12699 T       22.507                                99999999  9999
  123       13699 T       17.163                                99999999  9999
  123       17654         -.4129        .99                     560.728.  560.
  123     1001599 T       118.49         1.                     99999999  9999
  126        97 1            .01                                99999999  9999
  126       123 1      .25  2.76  46.5                          853.1075  853.
  126       13699 T       12.278                                99999999  9999
  126     1001599 T       84.698         1.                     99999999  9999
  126     1002299 T       72.221         1.                     99999999  9999
  131        22 1          4.432         1.                     378.378.  378.
  131       187 1         2.5267       .985  .95 1.05       -187400.480.32100.
  131       187 2         2.7184       .985  .95 1.05       -187400.480.32  5.
  131      3012 1     .107 1.05616.204                          853.1075  853.
  136        16 1           2.56         1.                     12801280  1280
  136       131 1     .348  3.42  52.8                          776.956.  717.
  136       14099 T       7.7236                                99999999  9999
  136     1001399 T       136.89         1.                     99999999  9999
  136     1001599 T       21.217         1.                     99999999  9999
  136     1001899 T       64.908         1.                     99999999  9999
  140       139 1          -.632         1.                     560.644.  1299
  140       141 1         -1.211         1.                     560.717.  560.
  140       142 1         -1.504         1.                     560.717.  560.
  140       144 1      .14  1.1220.034                          776.956.  717.
  140      396699 T       3.2414                                99999999  9999
  140      9609 2     .077  .80514.742                          853.1075  853.
  144       17899 T       3.5144         1.                     99999999  9999
  144      960199 T       5.5466         1.                     99999999  9999
  178       10756         2.2288       .952                     600.720.   83.
  178       10758         2.2748       .952                     600.720.   83.
  178       11052         -.1327         1.                     600.720.  150.
  178       17954         -.1225         1.                     600.720.   83.
  186       17654         17.718         1.                     187.187.  187.
  187        24 1           8.52      1.075                     200.200.   44.
  187     1001399 T       78.714         1.                     99999999  9999
  187     1001599 T       75.068         1.                     99999999  9999
  194       142 1         19.234         1.                     187.187.  225.
  195       141 1         19.001         1.                     187.187.  560.
  196       12451         18.082         1.                     187.186.  187.
  197       139 1          18.98         1.                     187.187.  560.
  210       100 1      .21  2.94 254.6                          17321732  1732
  210       23399 T       9.4577                                99999999  9999
  210       360 1     .164 2.497219.49                          25332533  2533
  210       370 1     .147  2.32 196.6                          17321732  1732
  210      4531 1      .19 2.772242.67                          24602460  300.
  210      453199 T       12.108                                99999999  9999
  210     1001399 T       36.857         1.                     99999999  9999
  210     1001499 T         169.         1.                     99999999  9999
  210     1001599 T       5.0302         1.                     99999999  9999
  233       210 1 T    .28  3.99355.36                          12992598  1299
  233       320 1 T  .27363.8674344.03                          12992598  1299
  233      453199 T       10.395                                99999999  9999
  233     1001599 T       10.315         1.                     99999999  9999
  233     1003099 T       130.97         1.                     99999999  9999
  235        36 1         .83567       1.05                     14181418  1299
  235       23399 T       .48246                                99999999  9999
  235      710099 T       .59261                                99999999  9999
  235     1003099 T       6.2949         1.                     99999999  9999
  299       235 1    .0273 .465865.349                          19921992  1992
  299      300799 T       1.3841                                99999999  9999
  299      6444 1    .1302 2.248320.98                          19921992  2728
  320       210 1 T   .125 1.937149.96                          17321732  1732
  320       360 1     .078  1.22102.51                          24422598  2442
  320       360 2     .081 1.216105.75                          25332533  2533
  320       390 1     .225 3.353300.63                          24422598  2442
  320     1001599 T       6.2984         1.                     99999999  9999
  325       10299 T       181.88                                99999999  9999
  325       13699 T       11.324         1.                     99999999  9999
  325       18799 T       123.13         1.                     99999999  9999
  325       21099 T       155.39                                99999999  9999
  325       360 1     .102 1.509123.85                          24422598  2442
  325       370 1     .287 4.755407.56                          22062598  2206
  325      301299 T       3.8637         1.                     99999999  9999
  325      405099 T       78.871                                99999999  9999
  325     1001399 T       19.586         1.                     99999999  9999
  325     1001599 T       4.7308         1.                     99999999  9999
...
99999
DCSC
(De ) O  (Pa )NcEPB      (Xmin)(Xmax)( Xv )C ( Vsp) (Ext)Nst(Cn)(Ce)(Cq)(1)(2)(3)(4)(5)(6)(7)(8)(9)(10
  114      115 1         -2.425-2.425-2.425X -2.425   114   193121241931
 6400     6510 1 T        -.876 -.876 -.876X  -.876  6400   19922685100.
 6400     6511 1 T        -.712 -.712 -.712X  -.712  6400   19922685100.
 6507     6400 1          -.704 -.704 -.704X  -.704  6507   199226851992
 6509     6400 1           -.69  -.69  -.69X   -.69  6509   19922685127.
 8100     8103 1         -.9036-.9036-.9036X -.9036  8100   19402619103.
 8100     8104 2         -.9036-.9036-.9036X -.9036  8100   19402619115.
 8101     8100 1 T       -1.957-1.957-1.957X -1.957  8101   20182724 86.
 8102     8100 2 T       -1.957-1.957-1.957X -1.957  8102   20182724125.
 8201     8200 1 T       -.9036-.9036-.9036X -.9036  8201   19402619218.
 8202     8200 2 T       -.9036-.9036-.9036X -.9036  8202   19402619 27.
99999
DCAI
(Num) O  Gr E (U) UOp ( P ) ( Q ) (A) (B) (C) (D) (Vfl) (Vf)
   87     1 L   1   1 111.5 22.6                  80.   1015
   87     9 L   1   1 132.5 73.29                 80.   1015
  100    99 L   1   1 389.3 -548.                 80.   1000
  100     9 L   1   1 170.2 -96.7                 80.   1000
  210    99 L   1   1       -1020                 80.   1000
  210     9 L   1   1 386.3 -235.                 80.   1000
  320    99 L   1   1 560.6 -691.                 80.   1000
  320     9 L   1   1 147.6 -.037                 80.   1000
  360    99 L   1   1 870.4 -336.                 80.   1000
  360     9 L   1   1                             80.   1000
  370    99 L   1   1       -636.                 80.   1000
  370     9 L   1   1       -120.                 80.   1000
 3008     1 L   1   1 145.  29.4                  80.   1000
 3008     9 L   1   1 39.2  6.341                 80.   1000
 6401     1 L   1   1 150.7 43.                   80.   1016
 6401     9 L   1   1 148.4 7.297                 80.   1016
 6461     1 L   1   1 964.  207.6                 80.   1033
 6461     9 L   1   1 1105. 1436.                 80.   1033
 7111     1 L   1   1 75.5  -18.4                 80.   1000
 7111     9 L   1   1       97.33                 80.   1000
99999
DGEI
(Num) OA Gr E(U)UOpUOn( Pg)( Qg)( Qn)( Qm)(Xtrf) ( Xd)( Xq)( Xl) (fp)( Sn)(Ptu)
99999
DBSH
(NFr) O (NTo) Nc C (Vmn (Vmx Bctrl (Qini) T A (Extr
   56            D 0800 1200    56  -180. C
(G  O E (U) UOp (Sht ) M
10        2   1  -180. S
FBAN
(NFr) O (NTo) Nc C (Vmn (Vmx Bctrl (Qini) T A (Extr
   57            D 0800 1200    57  -360. C
(G  O E (U) UOp (Sht ) M
10        3   2  -180. S
FBAN
(NFr) O (NTo) Nc C (Vmn (Vmx Bctrl (Qini) T A (Extr
   65            D 0900 1046    65  -330. C
(G  O E (U) UOp (Sht ) M
10        1   1  -330. S
FBAN
(NFr) O (NTo) Nc C (Vmn (Vmx Bctrl (Qini) T A (Extr
   67            D 0800 1200    67  -180. C
(G  O E (U) UOp (Sht ) M
10        3   1  -180. S
FBAN
(NFr) O (NTo) Nc C (Vmn (Vmx Bctrl (Qini) T A (Extr
   72            D 0900 1046    72  -660. C
(G  O E (U) UOp (Sht ) M
10        1   1  -330. S
20        1   1  -330. S
FBAN
(NFr) O (NTo) Nc C (Vmn (Vmx Bctrl (Qini) T A (Extr
   78            D 0950 1050    78   600. C
(G  O E (U) UOp (Sht ) M
10        4   3   200. S
FBAN
(NFr) O (NTo) Nc C (Vmn (Vmx Bctrl (Qini) T A (Extr
   79            D 0800 1200    79  -360. C
(G  O E (U) UOp (Sht ) M
10        2   2  -180. S
FBAN
(NFr) O (NTo) Nc C (Vmn (Vmx Bctrl (Qini) T A (Extr
   82            D 0950 1050    82   400. C
(G  O E (U) UOp (Sht ) M
10        5   2   200. S
FBAN
(NFr) O (NTo) Nc C (Vmn (Vmx Bctrl (Qini) T A (Extr
   85            F 0950 1100    85  1540. C
(G  O E (U) UOp (Sht ) M
10        3   3   280. S
20        2   2   350. S
FBAN
(NFr) O (NTo) Nc C (Vmn (Vmx Bctrl (Qini) T A (Extr
   86            F 0950 1050    86 2024.4 C
(G  O E (U) UOp (Sht ) M
10        2   2    59. S
20        3   3  220.8 S
30        4   4   237. S
40        1   0  279.8 S
50        2   0   294. S
60        2   1   296. S
FBAN
(NFr) O (NTo) Nc C (Vmn (Vmx Bctrl (Qini) T A (Extr
  210     100  1 F 1000 1100   100        C     100
(G  O E (U) UOp (Sht ) M
10        1   0  -100. S
FBAN
(NFr) O (NTo) Nc C (Vmn (Vmx Bctrl (Qini) T A (Extr
  100    4598  1 F 1000 1100   100        C     100
(G  O E (U) UOp (Sht ) M
10        1   0  -100. S
FBAN
(NFr) O (NTo) Nc C (Vmn (Vmx Bctrl (Qini) T A (Extr
  100    4598  2 F 1000 1100   100        C     100
(G  O E (U) UOp (Sht ) M
10        1   0  -100. S
FBAN
(NFr) O (NTo) Nc C (Vmn (Vmx Bctrl (Qini) T A (Extr
  103     609  1 D 0950 1100   103 -112.4 C     103
(G  O E (U) UOp (Sht ) M
10        1   1 -112.4 S
FBAN
(NFr) O (NTo) Nc C (Vmn (Vmx Bctrl (Qini) T A (Extr
  104      87  2 D 1000 1100   104  -136. C     104
(G  O E (U) UOp (Sht ) M
10        1   1  -136. S
FBAN
(NFr) O (NTo) Nc C (Vmn (Vmx Bctrl (Qini) T A (Extr
  104    9605  1 D 1000 1100   104  -136. C     104
(G  O E (U) UOp (Sht ) M
10        1   1  -136. S
FBAN
(NFr) O (NTo) Nc C (Vmn (Vmx Bctrl (Qini) T A (Extr
  105    9601  1 D 0950 1100   105  -136. C     105
(G  O E (U) UOp (Sht ) M
10        1   1  -136. S
FBAN
(NFr) O (NTo) Nc C (Vmn (Vmx Bctrl (Qini) T A (Extr
 9605     106  1 D 1000 1100   106        C     106
(G  O E (U) UOp (Sht ) M
10        1   0  -136. S
FBAN
(NFr) O (NTo) Nc C (Vmn (Vmx Bctrl (Qini) T A (Extr
 9605     106  2 D 1000 1100   106  -136. C     106
(G  O E (U) UOp (Sht ) M
10        1   1  -136. S
FBAN
(NFr) O (NTo) Nc C (Vmn (Vmx Bctrl (Qini) T A (Extr
  122            D 0950 1100   122  -180. C
(G  O E (U) UOp (Sht ) M
10        1   1  -180. S
FBAN
(NFr) O (NTo) Nc C (Vmn (Vmx Bctrl (Qini) T A (Extr
  123            D 0950 1050   123        C
(G  O E (U) UOp (Sht ) M
10        2   0   100. S
FBAN
(NFr) O (NTo) Nc C (Vmn (Vmx Bctrl (Qini) T A (Extr
  126            D 0950 1050   126   250. C
(G  O E (U) UOp (Sht ) M
10        1   1   100. S
20        1   1   150. S
FBAN
(NFr) O (NTo) Nc C (Vmn (Vmx Bctrl (Qini) T A (Extr
  140            D 0950 1050   140   325. C
(G  O E (U) UOp (Sht ) M
10        2   2  162.5 S
FBAN
(NFr) O (NTo) Nc C (Vmn (Vmx Bctrl (Qini) T A (Extr
  194            D 0900 1100   194        C
(G  O E (U) UOp (Sht ) M
10        1   0   -50. S
FBAN
(NFr) O (NTo) Nc C (Vmn (Vmx Bctrl (Qini) T A (Extr
  195            D 0950 1100   195        C
(G  O E (U) UOp (Sht ) M
10    D   3   0    10. S
FBAN
(NFr) O (NTo) Nc C (Vmn (Vmx Bctrl (Qini) T A (Extr
  196            D 0780 1200   196   -50. C
(G  O E (U) UOp (Sht ) M
10        2   1   -50. S
FBAN
(NFr) O (NTo) Nc C (Vmn (Vmx Bctrl (Qini) T A (Extr
  197            D 0800 1200   197        C
(G  O E (U) UOp (Sht ) M
10        1   0   -50. S
FBAN
(NFr) O (NTo) Nc C (Vmn (Vmx Bctrl (Qini) T A (Extr
  233     210  1 D 0950 1100   210        C     210
(G  O E (U) UOp (Sht ) M
10        1   0  -136. S
FBAN
(NFr) O (NTo) Nc C (Vmn (Vmx Bctrl (Qini) T A (Extr
  233            D 0950 1100   233  -136. C
(G  O E (U) UOp (Sht ) M
10        1   1  -136. S
FBAN
(NFr) O (NTo) Nc C (Vmn (Vmx Bctrl (Qini) T A (Extr
  299     235  1 D 0950 1100   235  -136. C     235
(G  O E (U) UOp (Sht ) M
10        1   1  -136. S
FBAN
(NFr) O (NTo) Nc C (Vmn (Vmx Bctrl (Qini) T A (Extr
  299            D 0950 1100   299  -136. C
(G  O E (U) UOp (Sht ) M
10        1   1  -136. S
FBAN
(NFr) O (NTo) Nc C (Vmn (Vmx Bctrl (Qini) T A (Extr
  320     390  1 D 0950 1100   320        C     320
(G  O E (U) UOp (Sht ) M
10        1   0  -90.7 S
FBAN
(NFr) O (NTo) Nc C (Vmn (Vmx Bctrl (Qini) T A (Extr
 4050     325  1 D 0950 1100   325  -90.6 C     325
(G  O E (U) UOp (Sht ) M
10        1   1  -90.6 S
FBAN
(NFr) O (NTo) Nc C (Vmn (Vmx Bctrl (Qini) T A (Extr
 4050     325  2 D 0950 1100   325  -90.6 C     325
(G  O E (U) UOp (Sht ) M
10        1   1  -90.6 S
FBAN
(NFr) O (NTo) Nc C (Vmn (Vmx Bctrl (Qini) T A (Extr
  360            D 0950 1100   360  -272. C
(G  O E (U) UOp (Sht ) M
10        2   2  -136. S
FBAN
(NFr) O (NTo) Nc C (Vmn (Vmx Bctrl (Qini) T A (Extr
  390            F 0950 1100   390        C
(G  O E (U) UOp (Sht ) M
10        2   0   -91. S
FBAN
(NFr) O (NTo) Nc C (Vmn (Vmx Bctrl (Qini) T A (Extr
  488            D 0950 1050   488   350. C
(G  O E (U) UOp (Sht ) M
10        1   1   150. S
20        1   1   200. S
FBAN
(NFr) O (NTo) Nc C (Vmn (Vmx Bctrl (Qini) T A (Extr
  535            D 0950 1100   535        C
(G  O E (U) UOp (Sht ) M
10        1   0  -165. S
FBAN
(NFr) O (NTo) Nc C (Vmn (Vmx Bctrl (Qini) T A (Extr
  580            F 1000 1100   580        C
(G  O E (U) UOp (Sht ) M
10        2   0  -136. S
FBAN
(NFr) O (NTo) Nc C (Vmn (Vmx Bctrl (Qini) T A (Extr
 7057     598  1 F 0950 1100   598  -136. C     598
(G  O E (U) UOp (Sht ) M
10        1   1  -136. S
FBAN
(NFr) O (NTo) Nc C (Vmn (Vmx Bctrl (Qini) T A (Extr
  895            D 0950 1050   895        C
(G  O E (U) UOp (Sht ) M
10        1   0  -200. S
FBAN
(NFr) O (NTo) Nc C (Vmn (Vmx Bctrl (Qini) T A (Extr
 1027            D 0950 1050  1027        C
(G  O E (U) UOp (Sht ) M
10        2   0  -150. S
FBAN
(NFr) O (NTo) Nc C (Vmn (Vmx Bctrl (Qini) T A (Extr
 3007            D 0950 1100  3007  -272. C
(G  O E (U) UOp (Sht ) M
10        2   2  -136. S
FBAN
(NFr) O (NTo) Nc C (Vmn (Vmx Bctrl (Qini) T A (Extr
 3008    4049  1 D 1000 1100  3008   -91. C    3008
(G  O E (U) UOp (Sht ) M
10        1   1   -91. S
FBAN
(NFr) O (NTo) Nc C (Vmn (Vmx Bctrl (Qini) T A (Extr
 3010            F 0950 1100  3010  2025. C
(G  O E (U) UOp (Sht ) M
10        3   3   220. S
20        3   3   180. S
30        6   3   275. S
FBAN
(NFr) O (NTo) Nc C (Vmn (Vmx Bctrl (Qini) T A (Extr
 3011            D 0950 1100  3011        C
(G  O E (U) UOp (Sht ) M
10        1   0  -180. S
FBAN
(NFr) O (NTo) Nc C (Vmn (Vmx Bctrl (Qini) T A (Extr
 3966            D 0950 1050  3966   -60. C
(G  O E (U) UOp (Sht ) M
10        1   1   -60. S
FBAN
(NFr) O (NTo) Nc C (Vmn (Vmx Bctrl (Qini) T A (Extr
 3008    4049  1 D 1000 1100  4049  -100. C    4049
(G  O E (U) UOp (Sht ) M
10        1   1  -100. S
FBAN
(NFr) O (NTo) Nc C (Vmn (Vmx Bctrl (Qini) T A (Extr
 4050            D 0950 1100  4050        C
(G  O E (U) UOp (Sht ) M
10        2   0   -91. S
FBAN
(NFr) O (NTo) Nc C (Vmn (Vmx Bctrl (Qini) T A (Extr
 4531            F 0950 1100  4531  -231. C
(G  O E (U) UOp (Sht ) M
10        1   1   -95. S
20        1   1  -136. S
30        2   0  -136. S
FBAN
(NFr) O (NTo) Nc C (Vmn (Vmx Bctrl (Qini) T A (Extr
 4598            D 0950 1100  4598        C
(G  O E (U) UOp (Sht ) M
10        1   0  -136. S
FBAN
(NFr) O (NTo) Nc C (Vmn (Vmx Bctrl (Qini) T A (Extr
 5436            D 1000 1100  5436  -360. C
(G  O E (U) UOp (Sht ) M
10        4   2  -180. S
FBAN
(NFr) O (NTo) Nc C (Vmn (Vmx Bctrl (Qini) T A (Extr
 5500            D 0950 1100  5500  -100. C
(G  O E (U) UOp (Sht ) M
10        1   1  -100. S
FBAN
(NFr) O (NTo) Nc C (Vmn (Vmx Bctrl (Qini) T A (Extr
 5500    5480  2 D 0950 1100  5500        C    5500
(G  O E (U) UOp (Sht ) M
10        1   0  -150. S
FBAN
(NFr) O (NTo) Nc C (Vmn (Vmx Bctrl (Qini) T A (Extr
 5510            D 0950 1100  5510        C
(G  O E (U) UOp (Sht ) M
10        1   0  -100. S
FBAN
(NFr) O (NTo) Nc C (Vmn (Vmx Bctrl (Qini) T A (Extr
 5540            D 0950 1100  5540  -136. C
(G  O E (U) UOp (Sht ) M
10        1   1  -136. S
FBAN
(NFr) O (NTo) Nc C (Vmn (Vmx Bctrl (Qini) T A (Extr
 5550            F 0950 1100  5550  -136. C
(G  O E (U) UOp (Sht ) M
10        1   1  -136. S
FBAN
(NFr) O (NTo) Nc C (Vmn (Vmx Bctrl (Qini) T A (Extr
 5570            D 0950 1100  5570  -100. C
(G  O E (U) UOp (Sht ) M
10        1   1  -100. S
20        1   0  -180. S
FBAN
(NFr) O (NTo) Nc C (Vmn (Vmx Bctrl (Qini) T A (Extr
 5580            D 0950 1100  5580        C
(G  O E (U) UOp (Sht ) M
10        1   0  -150. S
20        1   0  -163. S
FBAN
(NFr) O (NTo) Nc C (Vmn (Vmx Bctrl (Qini) T A (Extr
 5590            D 0950 1100  5590        C
(G  O E (U) UOp (Sht ) M
10        2   0  -136. S
20        1   0  -163. S
FBAN
(NFr) O (NTo) Nc C (Vmn (Vmx Bctrl (Qini) T A (Extr
 5679            F 1000 1100  5679        C
(G  O E (U) UOp (Sht ) M
10        2   0  -136. S
FBAN
(NFr) O (NTo) Nc C (Vmn (Vmx Bctrl (Qini) T A (Extr
 5684            D 1000 1100  5684  -136. C
(G  O E (U) UOp (Sht ) M
10        1   1  -136. S
FBAN
(NFr) O (NTo) Nc C (Vmn (Vmx Bctrl (Qini) T A (Extr
 6220            D 1000 1100  6220  -300. C
(G  O E (U) UOp (Sht ) M
10        3   2  -150. S
FBAN
(NFr) O (NTo) Nc C (Vmn (Vmx Bctrl (Qini) T A (Extr
 6349            F 0950 1100  6349        C
(G  O E (U) UOp (Sht ) M
10        1   0  -150. S
FBAN
(NFr) O (NTo) Nc C (Vmn (Vmx Bctrl (Qini) T A (Extr
 6359            D 0950 1100  6359        C
(G  O E (U) UOp (Sht ) M
10        1   0  -100. S
FBAN
(NFr) O (NTo) Nc C (Vmn (Vmx Bctrl (Qini) T A (Extr
 6360            D 1000 1100  6360  -150. C
(G  O E (U) UOp (Sht ) M
10        1   1  -150. S
FBAN
(NFr) O (NTo) Nc C (Vmn (Vmx Bctrl (Qini) T A (Extr
 6400            D 1000 1100  6400        C
(G  O E (U) UOp (Sht ) M
10        3   0  -163. S
FBAN
(NFr) O (NTo) Nc C (Vmn (Vmx Bctrl (Qini) T A (Extr
 6440            D 0950 1100  6440        C
(G  O E (U) UOp (Sht ) M
10        1   0  -136. S
FBAN
(NFr) O (NTo) Nc C (Vmn (Vmx Bctrl (Qini) T A (Extr
 6444            F 0950 1100  6444  -100. C
(G  O E (U) UOp (Sht ) M
10        1   1  -100. S
FBAN
(NFr) O (NTo) Nc C (Vmn (Vmx Bctrl (Qini) T A (Extr
 6460            D 0950 1100  6460        C
(G  O E (U) UOp (Sht ) M
10        1   0 -163.3 S
FBAN
(NFr) O (NTo) Nc C (Vmn (Vmx Bctrl (Qini) T A (Extr
 6461            D 0950 1050  6461   333. C
(G  O E (U) UOp (Sht ) M
10        4   3   111. S
FBAN
(NFr) O (NTo) Nc C (Vmn (Vmx Bctrl (Qini) T A (Extr
 6521            F 0950 1050  6521        C
(G  O E (U) UOp (Sht ) M
10        1   0   -30. S
FBAN
(NFr) O (NTo) Nc C (Vmn (Vmx Bctrl (Qini) T A (Extr
  115    6609  1 F 1000 1100  6609        C    6609
(G  O E (U) UOp (Sht ) M
10        1   0   -90. S
FBAN
(NFr) O (NTo) Nc C (Vmn (Vmx Bctrl (Qini) T A (Extr
 6700            D 0950 1100  6700        C
(G  O E (U) UOp (Sht ) M
10        3   0  -180. S
FBAN
(NFr) O (NTo) Nc C (Vmn (Vmx Bctrl (Qini) T A (Extr
 7054            F 0950 1050  7054   114. C
(G  O E (U) UOp (Sht ) M
10        1   1   -63. S
20        3   3    59. S
FBAN
(NFr) O (NTo) Nc C (Vmn (Vmx Bctrl (Qini) T A (Extr
 7055            F 1000 1100  7055  2223. C
(G  O E (U) UOp (Sht ) M
10        1   1   183. S
20        5   4   263. S
30        4   4   247. S
FBAN
(NFr) O (NTo) Nc C (Vmn (Vmx Bctrl (Qini) T A (Extr
 7060    7055  3 D 1000 1100  7055        C    7055
(G  O E (U) UOp (Sht ) M
10        1   0  -110. S
FBAN
(NFr) O (NTo) Nc C (Vmn (Vmx Bctrl (Qini) T A (Extr
 7057            F 1000 1100  7057  2462. C
(G  O E (U) UOp (Sht ) M
10        3   3   305. S
20        3   3   305. S
30        3   0   305. S
40        2   2   316. S
FBAN
(NFr) O (NTo) Nc C (Vmn (Vmx Bctrl (Qini) T A (Extr
 7057     598  1 F 0950 1100  7057        C    7057
(G  O E (U) UOp (Sht ) M
10        1   0  -136. S
FBAN
(NFr) O (NTo) Nc C (Vmn (Vmx Bctrl (Qini) T A (Extr
 7059            F 0800 1200  7059   284. C
(G  O E (U) UOp (Sht ) M
10        2   2   142. S
FBAN
(NFr) O (NTo) Nc C (Vmn (Vmx Bctrl (Qini) T A (Extr
 7100            D 1000 1100  7100  -136. C
(G  O E (U) UOp (Sht ) M
10        2   1  -136. S
FBAN
(NFr) O (NTo) Nc C (Vmn (Vmx Bctrl (Qini) T A (Extr
 7113            D 0800 1200  7113        C
(G  O E (U) UOp (Sht ) M
10        1   0  -136. S
FBAN
(NFr) O (NTo) Nc C (Vmn (Vmx Bctrl (Qini) T A (Extr
 7190            D 1000 1100  7190  -200. C
(G  O E (U) UOp (Sht ) M
10        1   1  -200. S
FBAN
(NFr) O (NTo) Nc C (Vmn (Vmx Bctrl (Qini) T A (Extr
 7200            D 0950 1100  7200  -136. C
(G  O E (U) UOp (Sht ) M
10        2   1  -136. S
FBAN
(NFr) O (NTo) Nc C (Vmn (Vmx Bctrl (Qini) T A (Extr
 7300            D 0950 1100  7300  -136. C
(G  O E (U) UOp (Sht ) M
10        2   1  -136. S
FBAN
(NFr) O (NTo) Nc C (Vmn (Vmx Bctrl (Qini) T A (Extr
 8099            F 0950 1100  8099  1800. C
(G  O E (U) UOp (Sht ) M
50        3   3   220. S
60        3   3   180. S
70        3   3   200. S
FBAN
(NFr) O (NTo) Nc C (Vmn (Vmx Bctrl (Qini) T A (Extr
 8100            F 0950 1100  8100  1400. C
(G  O E (U) UOp (Sht ) M
10        1   0  -136. S
20        3   3   220. S
30        3   3   180. S
40        2   1   200. S
FBAN
(NFr) O (NTo) Nc C (Vmn (Vmx Bctrl (Qini) T A (Extr
 8200            D 0950 1100  8200  -136. C
(G  O E (U) UOp (Sht ) M
10        2   1  -136. S
FBAN
(NFr) O (NTo) Nc C (Vmn (Vmx Bctrl (Qini) T A (Extr
 8300            D 0950 1100  8300  -200. C
(G  O E (U) UOp (Sht ) M
10        1   1  -200. S
FBAN
(NFr) O (NTo) Nc C (Vmn (Vmx Bctrl (Qini) T A (Extr
 9507            D 0900 1100  9507   -60. C
(G  O E (U) UOp (Sht ) M
10        1   0   -60. S
20        1   1   -60. S
FBAN
(NFr) O (NTo) Nc C (Vmn (Vmx Bctrl (Qini) T A (Extr
 9508            D 0900 1100  9508   -60. C
(G  O E (U) UOp (Sht ) M
10        1   0   -60. S
20        1   1   -60. S
FBAN
(NFr) O (NTo) Nc C (Vmn (Vmx Bctrl (Qini) T A (Extr
 9605            F 0950 1100  9605  1800. C
(G  O E (U) UOp (Sht ) M
10        3   3   225. S
20        3   3   225. S
30        6   2   225. S
40        2   0  -136. S
FBAN
(NFr) O (NTo) Nc C (Vmn (Vmx Bctrl (Qini) T A (Extr
 9608            D 1000 1100  9608        C
(G  O E (U) UOp (Sht ) M
10    D   1   0  -136. S
FBAN
99999
DSHL
(De ) O  (Pa )Nc (Shde)(Shpa) ED EP
  101      102 1 -73.          L
  101      103 1 -73.          L
  101     4598 1 -73.          L
  101     4598 2 -73.          L
  102     1503 1 -136.         L
  115     6609 1 -90.          L
  210      370 1       -91.       L
  210     4531 1 -95.  -95.    L  L
  233      210 1 -73.5         L
  233      320 1 -73.5 -73.5   L  L
  299     6444 1 -136. -200.   L  L
  320      210 1       -111.      L
  320      390 1 -90.7         L
  325      370 1 -91.  -91.    L  L
  580     4598 1 -136. -136.   L  L
  598     9608 1 -73.5 -73.5   L  L
  609     7057 1 -136. -136.   L  L
  896      999 1       -100.      L
 3007     4049 1 -200. -200.   L  L
 3008      320 1 -136.         L
 3010      609 1 -136. -136.   L  L
 3010      609 2 -136. -136.   L  L
 4050      325 1       -90.6      L
 4050      325 2       -90.6      L
 4598     4531 1 -190. -190.   L  L
 4598     4531 2 -190. -190.   L  L
 5500     5480 2 -150. -148.7  L  L
 5510     5580 1 -104. -192.   L  L
 5540     6700 1 -225. -225.   L  L
 5580     5500 1 -146. -98.    L  L
 5580     5500 2 -146. -98.    L  L
 5580     5540 2 -134.         L
 5590     5594 1 -47.  -47.    L  L
 5590     6400 1 -149. -131.   L  L
 5590     6400 2 -100. -132.   L  L
 5679     5684 1 -165. -165.   L  L
 5679     5684 2 -165. -165.   L  L
 6220     6349 1       -150.      L
 6220     6359 1       -200.      L
 6359     5860 1 -100. -100.   L  L
 6359     6369 1 -200. -150.   L  L
 6400     6510 1 -133.         L
 6400     6511 1 -131.         L
 6410     6460 2       -163.      L
 6430     6460 1       -163.      L
 6430     6460 3       -163.      L
 6430     6507 1       -100.      L
 6430     6509 1       -100.      L
 6430     8101 1       -136.      L
 6430     8102 2       -136.      L
 6444     6349 1 -200. -150.   L  L
 7057     6609 1 -73.5 -73.5   L  L
 8103     8201 1 -136. -136.   L  L
 8104     8202 2 -136. -136.   L  L
99999
DGER
(No ) O (Pmn ) (Pmx ) ( Fp) (FpR) (FPn) (Fa) (Fr) (Ag) ( Xq) (Sno)
   10       0.   657.        100.
   11       0.  1350.        100.
   16       0.   456.        100.
   22       0.   260.        100.
   24       0.   135.        100.
   36       0.  1260.        100.
  514       0.   414.        100.
 1100       0.  6750.        100.
 1107       0.  6480.        100.
 3962       0.   380.        100.
 3963       0.   291.        100.
 4203       0.   120.        100.
 5595       0. 1087.2        100.
 6419       0.  1750.        100.
 6420       0.  1050.        100.
 6422       0.  1400.        100.
 6424       0.  1560.        100.
 6425       0.  2730.        100.
 6729       0. 11000.        100.
 7050       0.   556.        100.
 7051       0.  2025.        100.
 7061       0.  1575.        100.
 7062       0. 864.48        100.
 7064       0.  1729.        100.
 7110       0.  498.9        100.
 7206       0.   900.        100.
10000       0.  9990.        100.
10001       0. 1282.8        100.
10002       0.  9990.        100.
10003       0. 1068.8        100.
10004       0.  812.5        100.
10005       0. 1270.5        100.
10006       0.  263.4        100.
10007       0.  358.3        100.
10008       0.   42.5        100.
10010       0.  337.6        100.
10011       0.   254.        100.
10012       0.  404.5        100.
10013       0. 12574.        100.
10014       0.  3474.        100.
10015       0. 7913.4        100.
10016       0.   566.        100.
10017       0. 1069.2        100.
10018       0. 1381.2        100.
10019       0.  791.3        100.
10020       0.  485.7        100.
10021       0. 721.74        100.
10022       0.   208.        100.
10023       0.   233.        100.
10024       0.   670.        100.
10025       0.  373.8        100.
10026       0. 226.36        100.
10028       0.   194.        100.
10029       0. 209.85        100.
10030       0.  693.2        100.
10031       0.   412.        100.
99999
DCAR
(tp) (no ) C (tp) (no ) C (tp) (no ) C (tp) (no ) O (A) (B) (C) (D) (Vfl)
99999
DCER
(No ) O Gr Un (Kb ) (Incl) ( Qg)( Qn)( Qm) C E L
 5480   10  1  5480     1. 12.08-150. 250.   L
 5679   90  1  5679     2. -173.-150. 300. P L
 6349   10  1  6349     .8 44.77-250. 250. P L
 6609    1  1  6609     1. 205.1-300. 300.   L
 8265   10  1  8265     1. -170.-221.221.6 P L
 8365   10  1  8365    .67 -114.-221.332.3 P L
99999
DCTR
(Nf ) O (Nt ) Nc Vmin Vmax C M (Fmin) (Fmax) C ( Vsp) (Ext) Ns
99999
DGLT
(G (Vmn) (Vmx) (Vmne (Vmxe
 8    .9   1.1    .9   1.1
99999
DARE
(Ar    (Xchg)     (      Identificacao da area       ) (Xmin) (Xmax)
  1        0.     FURNAS
  2        0.     CEMIG - G/T
  3        0.     CEMIG - DISTRIBUI��O
  4        0.     CTEEP - GRANDE SAO PAULO
  5        0.     CTEEP - RB E FRONTEIRA
  8        0.     C E S P
 14        0.     AES TIETE
 15        0.     CTG RIO PARANAPANEMA ENERGIA
 17        0.     ITAIPU (50 E 60 HZ)
 19        0.     ENGIE
 20        0.     ELETROSUL
 21        0.     COPEL-GT
 23        0.     CEEE-GT
 40        0.     LIGHT ENERGIA
 41        0.     DEMAIS AGENTES RJ/ES
 43        0.     A LICITAR
 44        0.     ELETRONUCLEAR
 45        0.     ELETRONORTE - MT-ACRO
 47        0.     RONDONIA
 49        0.     DEMAIS AGENTES MT
 51        0.     CHESF (UHE PAF + UAS + ULG + U
 53        0.     CHESF (SUDOESTE DA BAHIA)
 54        0.     CHESF (AREA SUL)
 56        0.     CHESF (AREA NORTE)
 57        0.     CHESF (AREA OESTE)
 58        0.     ENORTE (AREA MARANHAO)
 59        0.     ENORTE (AREA TUCURUI-BELEM)
 61        0.     ALBRAS + ALUMAR
 63        0.     INTERLIGACAO NORTE-SUL
 64        0.     CPFL - GERACAO
 71        0.     DEMAIS AGENTES SP
 72        0.     DEMAIS AGENTES MG
 73        0.     DEMAIS AGENTES GO/DF
 80        0.     INTERLIGA��O TUC-AMAPA-AMAZONI
 81        0.     MADEIRA
 85        0.     MANAUS
 91        0.     Teles Pires
99999
DTPF CIRC
(De ) (Pa ) Nc (De ) (Pa ) Nc (De ) (Pa ) Nc (De ) (Pa ) Nc (De ) (Pa ) Nc O
99999
DMTE
(tp) (no ) C (tp) (no ) C (tp) (no ) C (tp) (no ) O F
99999
DMFL CIRC
(De ) (Pa ) Nc (De ) (Pa ) Nc (De ) (Pa ) Nc (De ) (Pa ) Nc (De ) (Pa ) Nc O
99999
DELO
(No) O ( V ) ( P ) (   Identificacao  ) M E
   1    600. 1566. ELO CC - FOZ/IBIUNA  N L
   2    600. 1566. ELO CC - FOZ/IBIUNA  N L
   3    600. 1566. ELO CC - FOZ/IBIUNA  N L
   4    600. 1566. ELO CC - FOZ/IBIUNA  N L
1001    600. 1575. SANT-ARA ABB POLO1   N L
1002    600. 1575. SANT-ARA ABB POLO2   N L
1003    600. 1575. SANT-ARA AREVA POLO3 N L
1004    600. 1575. SANT-ARA AREVA POLO4 N L
2001    102.  400. BtB PVELHO POLO 1    N L
2002    102.  400. BtB PVELHO POLO 2    N L
3001    800. 2000. XINGU-ESTREITO POLO1 N L
3002    800. 2000. XINGU-ESTREITO POLO2 N L
3003    800. 2000. XINGU-T.RIO POLO3    N L
3004    800. 2000. XINGU-T.RIO POLO4    N L
99999
DCBA
(No) O TP(   Nome   )Gl( Vd)                                      ( Rs)(Elo
  10   1+RET+ELO01      600.                                              1
  20    +INV+ELO01     581.7                                              1
  30    0NEU0ELO01R       0.                                              1
  40    0NEU0ELO01I       0.                                              1
  50   1+RET+ELO02      600.                                              2
  60    +INV+ELO02     581.7                                              2
  70    0NEU0ELO02R       0.                                              2
  80    0NEU0ELO02I       0.                                              2
  90   1+RET+ELO03      600.                                              3
 100    +INV+ELO03     581.7                                              3
 110    0NEU0ELO03R       0.                                              3
 120    0NEU0ELO03I       0.                                              3
 130   1+RET+ELO04      600.                                              4
 140    +INV+ELO04     581.7                                              4
 150    0NEU0ELO04R       0.                                              4
 160    0NEU0ELO04I       0.                                              4
1101   1+RET+ABB01      600.                                           1001
1102    +INV+ABB01     557.2                                           1001
1103    0NEU0ABB01R       0.                                           1001
1104    0NEU0ABB01I       0.                                           1001
1105   1+RET+ABB02      600.                                           1002
1106    +INV+ABB02     557.2                                           1002
1107    0NEU0ABB02R       0.                                           1002
1108    0NEU0ABB02I       0.                                           1002
1109   1+RET+AREVA03    600.                                           1003
1110    +INV+AREVA03   560.4                                           1003
1111    0NEU0AREVA03R     0.                                           1003
1112    0NEU0AREVA03I     0.                                           1003
1113   1+RET+AREVA04    600.                                           1004
1114    +INV+AREVA04   560.4                                           1004
...